    7
 
 C     0.000000     0.000000     0.000000
 C     0.000000     0.000000     1.089000
 O     1.056551     0.000000     1.699000
 H    -0.943102     0.000000     1.633500
 H    -1.026719     0.000000    -0.363000
 H     0.513360     0.889165    -0.363000
 H     0.513360    -0.889165    -0.363000
